                                   MODFLOW 6
                U.S. GEOLOGICAL SURVEY MODULAR HYDROLOGIC MODEL
                            VERSION 6.6.2 05/12/2025

   MODFLOW 6 compiled May 24 2025 12:24:34 with Intel(R) Fortran Intel(R) 64
   Compiler Classic for applications running on Intel(R) 64, Version 2021.7.0
                             Build 20220726_000000

This software has been approved for release by the U.S. Geological 
Survey (USGS). Although the software has been subjected to rigorous 
review, the USGS reserves the right to update the software as needed 
pursuant to further analysis and review. No warranty, expressed or 
implied, is made by the USGS or the U.S. Government as to the 
functionality of the software and related material nor shall the 
fact of release constitute any such warranty. Furthermore, the 
software is released on condition that neither the USGS nor the U.S. 
Government shall be held liable for any damages resulting from its 
authorized or unauthorized use. Also refer to the USGS Water 
Resources Software User Rights Notice for complete use, copyright, 
and distribution information.


As a work of the United States Government, this USGS product is 
in the public domain within the United States. You can copy, 
modify, distribute, and perform the work, even for commercial 
purposes, all without asking permission. Additionally, USGS 
waives copyright and related rights in the work worldwide 
through CC0 1.0 Universal Public Domain Dedication 
(https://creativecommons.org/publicdomain/zero/1.0/).

The following GNU Lesser General Public License (LGPL) libraries
are used in this USGS product:

    SPARSKIT version 2.0
      ilut, luson, and qsplit 
      (https://www-users.cse.umn.edu/~saad/software/SPARSKIT/)

    RCM - Reverse Cuthill McKee Ordering
      (https://people.math.sc.edu/Burkardt/f_src/rcm/rcm.html)

    BLAS - Basic Linear Algebra Subprograms Level 1
      (https://people.math.sc.edu/Burkardt/f_src/blas1_d/blas1_d.html)

    SPARSEKIT - Sparse Matrix Utility Package
      amux, dperm, dvperm, rperm, and cperm
      (https://people.sc.fsu.edu/~jburkardt/f77_src/sparsekit/sparsekit.html)

The following BSD-3 License libraries are used in this USGS product:

    Modern Fortran DAG Library
      Copyright (c) 2018, Jacob Williams
      All rights reserved.
      (https://github.com/jacobwilliams/daglib)

MODFLOW 6 compiler options: -Imac/obj_libmf6 -O2 -fPIC -no-heap-arrays -fpe0
-traceback -Qdiag-disable:7416 -Qdiag-disable:7025 -Qdiag-disable:5268 -fpp
-module mac/mod_libmf6/ -c -o mac/obj_libmf6/compilerversion.o

System command used to initiate simulation:


MODFLOW was compiled using uniform precision.

Real Variables
  KIND: 8
  TINY (smallest non-zero value):    2.225074-308
  HUGE (largest value):    1.797693+308
  PRECISION: 15
  SIZE IN BITS: 64

Integer Variables
  KIND: 4
  HUGE (largest value): 2147483647
  SIZE IN BITS: 32

Long Integer Variables
  KIND: 8
  HUGE (largest value): 9223372036854775807
  SIZE IN BITS: 64

Logical Variables
  KIND: 4
  SIZE IN BITS: 32
 

 OPENED mfsim.nam
 FILE TYPE:NAM6               UNIT 1002   STATUS:OLD                 
 FORMAT:FORMATTED              ACCESS:SEQUENTIAL          
 ACTION:READ                

 # File generated by Flopy version 3.4.3 on 05/26/2026 at 20:04:53.

 OPENED Bowers_beach.tdis
 FILE TYPE:TDIS6              UNIT 1003   STATUS:OLD                 
 FORMAT:FORMATTED              ACCESS:SEQUENTIAL          
 ACTION:READ                

 # File generated by Flopy version 3.4.3 on 05/26/2026 at 20:04:53.

 OPENED Bowers_beach.nam
 FILE TYPE:GWF6               UNIT 1004   STATUS:OLD                 
 FORMAT:FORMATTED              ACCESS:SEQUENTIAL          
 ACTION:READ                

 # File generated by Flopy version 3.4.3 on 05/26/2026 at 20:04:53.

 OPENED Bowers_beach.dis
 FILE TYPE:DIS6               UNIT 1005   STATUS:OLD                 
 FORMAT:FORMATTED              ACCESS:SEQUENTIAL          
 ACTION:READ                

 # File generated by Flopy version 3.4.3 on 05/26/2026 at 20:04:53.

 OPENED Bowers_beach.npf
 FILE TYPE:NPF6               UNIT 1006   STATUS:OLD                 
 FORMAT:FORMATTED              ACCESS:SEQUENTIAL          
 ACTION:READ                

 # File generated by Flopy version 3.4.3 on 05/26/2026 at 20:04:53.

 OPENED Bowers_beach.sto
 FILE TYPE:STO6               UNIT 1007   STATUS:OLD                 
 FORMAT:FORMATTED              ACCESS:SEQUENTIAL          
 ACTION:READ                

 # File generated by Flopy version 3.4.3 on 05/26/2026 at 20:04:53.

 OPENED Bowers_beach.ic
 FILE TYPE:IC6                UNIT 1008   STATUS:OLD                 
 FORMAT:FORMATTED              ACCESS:SEQUENTIAL          
 ACTION:READ                

 # File generated by Flopy version 3.4.3 on 05/26/2026 at 20:04:53.

 OPENED Bowers_beach.oc
 FILE TYPE:OC6       UNIT 1009   STATUS:OLD                 
 FORMAT:FORMATTED              ACCESS:SEQUENTIAL          
 ACTION:READ                


 OPENED Bowers_beach.obs
 FILE TYPE:OBS6      UNIT 1010   STATUS:OLD                 
 FORMAT:FORMATTED              ACCESS:SEQUENTIAL          
 ACTION:READ                


 OPENED Bowers_beach.wel
 FILE TYPE:WEL6               UNIT 1011   STATUS:OLD                 
 FORMAT:FORMATTED              ACCESS:SEQUENTIAL          
 ACTION:READ                

 # File generated by Flopy version 3.4.3 on 05/26/2026 at 20:04:55.

 OPENED Bowers_beach.drn
 FILE TYPE:DRN6               UNIT 1012   STATUS:OLD                 
 FORMAT:FORMATTED              ACCESS:SEQUENTIAL          
 ACTION:READ                

 # File generated by Flopy version 3.4.3 on 05/26/2026 at 20:04:54.

 OPENED stjones_river
 FILE TYPE:RIV6               UNIT 1013   STATUS:OLD                 
 FORMAT:FORMATTED              ACCESS:SEQUENTIAL          
 ACTION:READ                

 # File generated by Flopy version 3.4.3 on 05/25/2026 at 14:07:35.

 OPENED murderkill_river
 FILE TYPE:RIV6               UNIT 1014   STATUS:OLD                 
 FORMAT:FORMATTED              ACCESS:SEQUENTIAL          
 ACTION:READ                

 # File generated by Flopy version 3.4.3 on 05/25/2026 at 14:07:35.

 OPENED Bowers_beach.ghb
 FILE TYPE:GHB6               UNIT 1015   STATUS:OLD                 
 FORMAT:FORMATTED              ACCESS:SEQUENTIAL          
 ACTION:READ                

 # File generated by Flopy version 3.4.3 on 05/26/2026 at 20:04:54.

 OPENED Bowers_beach.rcha
 FILE TYPE:RCH6               UNIT 1017   STATUS:OLD                 
 FORMAT:FORMATTED              ACCESS:SEQUENTIAL          
 ACTION:READ                

 # File generated by Flopy version 3.4.3 on 05/26/2026 at 20:04:54.

 OPENED Bowers_beach.chd
 FILE TYPE:CHD6               UNIT 1018   STATUS:OLD                 
 FORMAT:FORMATTED              ACCESS:SEQUENTIAL          
 ACTION:READ                

 # File generated by Flopy version 3.4.3 on 05/26/2026 at 20:04:54.

 READING SIMULATION OPTIONS
    MAXIMUM NUMBER OF ERRORS THAT WILL BE STORED IS 1000
 END OF SIMULATION OPTIONS

 READING SIMULATION TIMING

 TDIS -- TEMPORAL DISCRETIZATION PACKAGE,
 VERSION 1 : 11/13/2014 - INPUT READ FROM MEMPATH: __INPUT__/SIM/TDIS                                
 PROCESSING TDIS OPTIONS
    SIMULATION TIME UNIT IS DAYS
 END OF TDIS OPTIONS
 PROCESSING TDIS DIMENSIONS
  365 STRESS PERIOD(S) IN SIMULATION
 END OF TDIS DIMENSIONS
 PROCESSING TDIS PERIODDATA


 STRESS PERIOD     LENGTH       TIME STEPS     MULTIPLIER FOR DELT
 ----------------------------------------------------------------------------
        1         1.000000          1                    1.000
        2         1.000000          1                    1.000
        3         1.000000          1                    1.000
        4         1.000000          1                    1.000
        5         1.000000          1                    1.000
        6         1.000000          1                    1.000
        7         1.000000          1                    1.000
        8         1.000000          1                    1.000
        9         1.000000          1                    1.000
       10         1.000000          1                    1.000
       11         1.000000          1                    1.000
       12         1.000000          1                    1.000
       13         1.000000          1                    1.000
       14         1.000000          1                    1.000
       15         1.000000          1                    1.000
       16         1.000000          1                    1.000
       17         1.000000          1                    1.000
       18         1.000000          1                    1.000
       19         1.000000          1                    1.000
       20         1.000000          1                    1.000
       21         1.000000          1                    1.000
       22         1.000000          1                    1.000
       23         1.000000          1                    1.000
       24         1.000000          1                    1.000
       25         1.000000          1                    1.000
       26         1.000000          1                    1.000
       27         1.000000          1                    1.000
       28         1.000000          1                    1.000
       29         1.000000          1                    1.000
       30         1.000000          1                    1.000
       31         1.000000          1                    1.000
       32         1.000000          1                    1.000
       33         1.000000          1                    1.000
       34         1.000000          1                    1.000
       35         1.000000          1                    1.000
       36         1.000000          1                    1.000
       37         1.000000          1                    1.000
       38         1.000000          1                    1.000
       39         1.000000          1                    1.000
       40         1.000000          1                    1.000
       41         1.000000          1                    1.000
       42         1.000000          1                    1.000
       43         1.000000          1                    1.000
       44         1.000000          1                    1.000
       45         1.000000          1                    1.000
       46         1.000000          1                    1.000
       47         1.000000          1                    1.000
       48         1.000000          1                    1.000
       49         1.000000          1                    1.000
       50         1.000000          1                    1.000
       51         1.000000          1                    1.000
       52         1.000000          1                    1.000
       53         1.000000          1                    1.000
       54         1.000000          1                    1.000
       55         1.000000          1                    1.000
       56         1.000000          1                    1.000
       57         1.000000          1                    1.000
       58         1.000000          1                    1.000
       59         1.000000          1                    1.000
       60         1.000000          1                    1.000
       61         1.000000          1                    1.000
       62         1.000000          1                    1.000
       63         1.000000          1                    1.000
       64         1.000000          1                    1.000
       65         1.000000          1                    1.000
       66         1.000000          1                    1.000
       67         1.000000          1                    1.000
       68         1.000000          1                    1.000
       69         1.000000          1                    1.000
       70         1.000000          1                    1.000
       71         1.000000          1                    1.000
       72         1.000000          1                    1.000
       73         1.000000          1                    1.000
       74         1.000000          1                    1.000
       75         1.000000          1                    1.000
       76         1.000000          1                    1.000
       77         1.000000          1                    1.000
       78         1.000000          1                    1.000
       79         1.000000          1                    1.000
       80         1.000000          1                    1.000
       81         1.000000          1                    1.000
       82         1.000000          1                    1.000
       83         1.000000          1                    1.000
       84         1.000000          1                    1.000
       85         1.000000          1                    1.000
       86         1.000000          1                    1.000
       87         1.000000          1                    1.000
       88         1.000000          1                    1.000
       89         1.000000          1                    1.000
       90         1.000000          1                    1.000
       91         1.000000          1                    1.000
       92         1.000000          1                    1.000
       93         1.000000          1                    1.000
       94         1.000000          1                    1.000
       95         1.000000          1                    1.000
       96         1.000000          1                    1.000
       97         1.000000          1                    1.000
       98         1.000000          1                    1.000
       99         1.000000          1                    1.000
      100         1.000000          1                    1.000
      101         1.000000          1                    1.000
      102         1.000000          1                    1.000
      103         1.000000          1                    1.000
      104         1.000000          1                    1.000
      105         1.000000          1                    1.000
      106         1.000000          1                    1.000
      107         1.000000          1                    1.000
      108         1.000000          1                    1.000
      109         1.000000          1                    1.000
      110         1.000000          1                    1.000
      111         1.000000          1                    1.000
      112         1.000000          1                    1.000
      113         1.000000          1                    1.000
      114         1.000000          1                    1.000
      115         1.000000          1                    1.000
      116         1.000000          1                    1.000
      117         1.000000          1                    1.000
      118         1.000000          1                    1.000
      119         1.000000          1                    1.000
      120         1.000000          1                    1.000
      121         1.000000          1                    1.000
      122         1.000000          1                    1.000
      123         1.000000          1                    1.000
      124         1.000000          1                    1.000
      125         1.000000          1                    1.000
      126         1.000000          1                    1.000
      127         1.000000          1                    1.000
      128         1.000000          1                    1.000
      129         1.000000          1                    1.000
      130         1.000000          1                    1.000
      131         1.000000          1                    1.000
      132         1.000000          1                    1.000
      133         1.000000          1                    1.000
      134         1.000000          1                    1.000
      135         1.000000          1                    1.000
      136         1.000000          1                    1.000
      137         1.000000          1                    1.000
      138         1.000000          1                    1.000
      139         1.000000          1                    1.000
      140         1.000000          1                    1.000
      141         1.000000          1                    1.000
      142         1.000000          1                    1.000
      143         1.000000          1                    1.000
      144         1.000000          1                    1.000
      145         1.000000          1                    1.000
      146         1.000000          1                    1.000
      147         1.000000          1                    1.000
      148         1.000000          1                    1.000
      149         1.000000          1                    1.000
      150         1.000000          1                    1.000
      151         1.000000          1                    1.000
      152         1.000000          1                    1.000
      153         1.000000          1                    1.000
      154         1.000000          1                    1.000
      155         1.000000          1                    1.000
      156         1.000000          1                    1.000
      157         1.000000          1                    1.000
      158         1.000000          1                    1.000
      159         1.000000          1                    1.000
      160         1.000000          1                    1.000
      161         1.000000          1                    1.000
      162         1.000000          1                    1.000
      163         1.000000          1                    1.000
      164         1.000000          1                    1.000
      165         1.000000          1                    1.000
      166         1.000000          1                    1.000
      167         1.000000          1                    1.000
      168         1.000000          1                    1.000
      169         1.000000          1                    1.000
      170         1.000000          1                    1.000
      171         1.000000          1                    1.000
      172         1.000000          1                    1.000
      173         1.000000          1                    1.000
      174         1.000000          1                    1.000
      175         1.000000          1                    1.000
      176         1.000000          1                    1.000
      177         1.000000          1                    1.000
      178         1.000000          1                    1.000
      179         1.000000          1                    1.000
      180         1.000000          1                    1.000
      181         1.000000          1                    1.000
      182         1.000000          1                    1.000
      183         1.000000          1                    1.000
      184         1.000000          1                    1.000
      185         1.000000          1                    1.000
      186         1.000000          1                    1.000
      187         1.000000          1                    1.000
      188         1.000000          1                    1.000
      189         1.000000          1                    1.000
      190         1.000000          1                    1.000
      191         1.000000          1                    1.000
      192         1.000000          1                    1.000
      193         1.000000          1                    1.000
      194         1.000000          1                    1.000
      195         1.000000          1                    1.000
      196         1.000000          1                    1.000
      197         1.000000          1                    1.000
      198         1.000000          1                    1.000
      199         1.000000          1                    1.000
      200         1.000000          1                    1.000
      201         1.000000          1                    1.000
      202         1.000000          1                    1.000
      203         1.000000          1                    1.000
      204         1.000000          1                    1.000
      205         1.000000          1                    1.000
      206         1.000000          1                    1.000
      207         1.000000          1                    1.000
      208         1.000000          1                    1.000
      209         1.000000          1                    1.000
      210         1.000000          1                    1.000
      211         1.000000          1                    1.000
      212         1.000000          1                    1.000
      213         1.000000          1                    1.000
      214         1.000000          1                    1.000
      215         1.000000          1                    1.000
      216         1.000000          1                    1.000
      217         1.000000          1                    1.000
      218         1.000000          1                    1.000
      219         1.000000          1                    1.000
      220         1.000000          1                    1.000
      221         1.000000          1                    1.000
      222         1.000000          1                    1.000
      223         1.000000          1                    1.000
      224         1.000000          1                    1.000
      225         1.000000          1                    1.000
      226         1.000000          1                    1.000
      227         1.000000          1                    1.000
      228         1.000000          1                    1.000
      229         1.000000          1                    1.000
      230         1.000000          1                    1.000
      231         1.000000          1                    1.000
      232         1.000000          1                    1.000
      233         1.000000          1                    1.000
      234         1.000000          1                    1.000
      235         1.000000          1                    1.000
      236         1.000000          1                    1.000
      237         1.000000          1                    1.000
      238         1.000000          1                    1.000
      239         1.000000          1                    1.000
      240         1.000000          1                    1.000
      241         1.000000          1                    1.000
      242         1.000000          1                    1.000
      243         1.000000          1                    1.000
      244         1.000000          1                    1.000
      245         1.000000          1                    1.000
      246         1.000000          1                    1.000
      247         1.000000          1                    1.000
      248         1.000000          1                    1.000
      249         1.000000          1                    1.000
      250         1.000000          1                    1.000
      251         1.000000          1                    1.000
      252         1.000000          1                    1.000
      253         1.000000          1                    1.000
      254         1.000000          1                    1.000
      255         1.000000          1                    1.000
      256         1.000000          1                    1.000
      257         1.000000          1                    1.000
      258         1.000000          1                    1.000
      259         1.000000          1                    1.000
      260         1.000000          1                    1.000
      261         1.000000          1                    1.000
      262         1.000000          1                    1.000
      263         1.000000          1                    1.000
      264         1.000000          1                    1.000
      265         1.000000          1                    1.000
      266         1.000000          1                    1.000
      267         1.000000          1                    1.000
      268         1.000000          1                    1.000
      269         1.000000          1                    1.000
      270         1.000000          1                    1.000
      271         1.000000          1                    1.000
      272         1.000000          1                    1.000
      273         1.000000          1                    1.000
      274         1.000000          1                    1.000
      275         1.000000          1                    1.000
      276         1.000000          1                    1.000
      277         1.000000          1                    1.000
      278         1.000000          1                    1.000
      279         1.000000          1                    1.000
      280         1.000000          1                    1.000
      281         1.000000          1                    1.000
      282         1.000000          1                    1.000
      283         1.000000          1                    1.000
      284         1.000000          1                    1.000
      285         1.000000          1                    1.000
      286         1.000000          1                    1.000
      287         1.000000          1                    1.000
      288         1.000000          1                    1.000
      289         1.000000          1                    1.000
      290         1.000000          1                    1.000
      291         1.000000          1                    1.000
      292         1.000000          1                    1.000
      293         1.000000          1                    1.000
      294         1.000000          1                    1.000
      295         1.000000          1                    1.000
      296         1.000000          1                    1.000
      297         1.000000          1                    1.000
      298         1.000000          1                    1.000
      299         1.000000          1                    1.000
      300         1.000000          1                    1.000
      301         1.000000          1                    1.000
      302         1.000000          1                    1.000
      303         1.000000          1                    1.000
      304         1.000000          1                    1.000
      305         1.000000          1                    1.000
      306         1.000000          1                    1.000
      307         1.000000          1                    1.000
      308         1.000000          1                    1.000
      309         1.000000          1                    1.000
      310         1.000000          1                    1.000
      311         1.000000          1                    1.000
      312         1.000000          1                    1.000
      313         1.000000          1                    1.000
      314         1.000000          1                    1.000
      315         1.000000          1                    1.000
      316         1.000000          1                    1.000
      317         1.000000          1                    1.000
      318         1.000000          1                    1.000
      319         1.000000          1                    1.000
      320         1.000000          1                    1.000
      321         1.000000          1                    1.000
      322         1.000000          1                    1.000
      323         1.000000          1                    1.000
      324         1.000000          1                    1.000
      325         1.000000          1                    1.000
      326         1.000000          1                    1.000
      327         1.000000          1                    1.000
      328         1.000000          1                    1.000
      329         1.000000          1                    1.000
      330         1.000000          1                    1.000
      331         1.000000          1                    1.000
      332         1.000000          1                    1.000
      333         1.000000          1                    1.000
      334         1.000000          1                    1.000
      335         1.000000          1                    1.000
      336         1.000000          1                    1.000
      337         1.000000          1                    1.000
      338         1.000000          1                    1.000
      339         1.000000          1                    1.000
      340         1.000000          1                    1.000
      341         1.000000          1                    1.000
      342         1.000000          1                    1.000
      343         1.000000          1                    1.000
      344         1.000000          1                    1.000
      345         1.000000          1                    1.000
      346         1.000000          1                    1.000
      347         1.000000          1                    1.000
      348         1.000000          1                    1.000
      349         1.000000          1                    1.000
      350         1.000000          1                    1.000
      351         1.000000          1                    1.000
      352         1.000000          1                    1.000
      353         1.000000          1                    1.000
      354         1.000000          1                    1.000
      355         1.000000          1                    1.000
      356         1.000000          1                    1.000
      357         1.000000          1                    1.000
      358         1.000000          1                    1.000
      359         1.000000          1                    1.000
      360         1.000000          1                    1.000
      361         1.000000          1                    1.000
      362         1.000000          1                    1.000
      363         1.000000          1                    1.000
      364         1.000000          1                    1.000
      365         1.000000          1                    1.000
 END OF TDIS PERIODDATA
 END OF SIMULATION TIMING

 READING SIMULATION MODELS
    GWF6 model 1 will be created
 END OF SIMULATION MODELS

 READING SIMULATION EXCHANGES
 END OF SIMULATION EXCHANGES

 READING SOLUTIONGROUP

 Creating solution: SLN_1           

 OPENED Bowers_beach.ims
 FILE TYPE:IMS   UNIT 1020   STATUS:OLD                 
 FORMAT:FORMATTED              ACCESS:SEQUENTIAL          
 ACTION:READ                

 END OF SOLUTIONGROUP

PROCESSING MODEL CONNECTIONS

 IMS -- ITERATIVE MODEL SOLUTION PACKAGE, VERSION 6, 4/28/2017
         INPUT READ FROM UNIT 1020
 # File generated by Flopy version 3.4.3 on 05/26/2026 at 20:04:53.

 PROCESSING IMS OPTIONS
 SIMPLE OPTION:
 DEFAULT SOLVER INPUT VALUES FOR FAST SOLUTIONS
 END OF IMS OPTIONS
 ***UNDER-RELAXATION WILL NOT BE USED***
 

 PROCESSING LINEAR DATA
 END OF LINEAR DATA
 ***IMS LINEAR SOLVER WILL BE USED***

 IMSLINEAR -- UNSTRUCTURED LINEAR SOLUTION PACKAGE, VERSION 8, 04/28/2017
 An asymmetric matrix will be solved

 OUTER ITERATION CONVERGENCE CRITERION    (DVCLOSE) =    0.100000E-02
 MAXIMUM NUMBER OF OUTER ITERATIONS        (MXITER) = 25
 SOLVER PRINTOUT INDEX                     (IPRIMS) = 2
 NONLINEAR ITERATION METHOD            (NONLINMETH) = 0
 LINEAR SOLUTION METHOD                   (LINMETH) = 1

       SOLUTION BY THE BICONJUGATE-GRADIENT STABILIZED METHOD
 ------------------------------------------------------------------
 MAXIMUM OF 25 CALLS OF SOLUTION ROUTINE
 MAXIMUM OF 50 INTERNAL ITERATIONS PER CALL TO SOLUTION ROUTINE
 LINEAR ACCELERATION METHOD            = BCGS      
 MATRIX PRECONDITIONING TYPE           = INCOMPLETE LU       
 MATRIX SCALING APPROACH               = NO SCALING          
 MATRIX REORDERING APPROACH            = ORIGINAL ORDERING        
 NUMBER OF ORTHOGONALIZATIONS          = 0
 HEAD CHANGE CRITERION FOR CLOSURE     =    0.10000E-02
 RESIDUAL CHANGE CRITERION FOR CLOSURE =    0.10000E+00
 RESIDUAL CONVERGENCE OPTION           = 0
 RESIDUAL CONVERGENCE NORM             = INFINITY NORM   
 RELAXATION FACTOR                     =    0.00000E+00



 
    Solving:  Stress period:     1    Time step:     1
 
1
 STRESS PERIOD NO. 1, LENGTH =   1.000000    
 ------------------------------------------
 NUMBER OF TIME STEPS = 1
 MULTIPLIER FOR DELT =     1.000
 INITIAL TIME STEP SIZE =   1.000000    



 PSEUDO-TRANSIENT CONTINUATION WILL BE APPLIED TO MODEL 1 ("BOWERS_BEACH") DURING THIS TIME STEP

 SLN_1 OUTER ITERATION SUMMARY
 ----------------------------------------------------------------------------------------------------------
                                OUTER      INNER                    STEP   MAXIMUM CHANGE MODEL-(CELLID) OR
 OUTER ITERATION STEP       ITERATION  ITERATION  MAXIMUM CHANGE SUCCESS             MODEL-PACKAGE-(NUMBER)
 ----------------------------------------------------------------------------------------------------------
 Model                              1         48       6.6485335                          1_GWF-(1,190,109)
 Model                              2         13      -6.5397923                          1_GWF-(1,190,109)
 Model                              3         23      -2.5282999                           1_GWF-(1,208,56)
 Model                              4         26      -2.3280456                            1_GWF-(1,65,95)
 Model                              5         30      -2.3316314                           1_GWF-(1,194,46)
 Model                              6         36      -2.3293493                            1_GWF-(1,60,87)
 Model                              7         38      -1.9151402                           1_GWF-(1,184,86)
 Model                              8         37      -1.4757099                          1_GWF-(1,170,125)
 Model                              9         37     -0.77408139                          1_GWF-(1,146,105)
 Model                             10         17 -8.53437024E-02                          1_GWF-(1,159,104)
 Model                             11          4 -1.00446523E-02                          1_GWF-(1,154,169)
 Model                             12          5 -7.02600033E-03                           1_GWF-(1,138,65)
 Model                             13          1  4.85617742E-04       *                   1_GWF-(1,229,60)
 ----------------------------------------------------------------------------------------------------------


 13 CALLS TO NUMERICAL SOLUTION IN TIME STEP 1 STRESS PERIOD 1
 315 TOTAL ITERATIONS

 SLN_1 INNER ITERATION SUMMARY
 --------------------------------------------------------------------------------------------------------------------------------------
      TOTAL      OUTER      INNER                                                            MAXIMUM                                   
  ITERATION  ITERATION  ITERATION  MAXIMUM CHANGE      MAXIMUM CHANGE MODEL-(CELLID)        RESIDUAL    MAXIMUM RESIDUAL MODEL-(CELLID)
 --------------------------------------------------------------------------------------------------------------------------------------
          1          1          1      -3.6498529                    1_GWF-(1,70,20)      -59.430295                    1_GWF-(1,137,7)
          2          1          2       1.3077911                   1_GWF-(1,133,14)      -30.040594                    1_GWF-(1,137,7)
          3          1          3      0.71706288                    1_GWF-(1,161,6)      -14.131841                  1_GWF-(1,145,261)
          4          1          4     -0.61659995                    1_GWF-(1,71,28)      -12.411627                  1_GWF-(1,145,261)
          5          1          5     -0.52137103                    1_GWF-(1,73,29)      -8.1073567                  1_GWF-(1,145,261)
          6          1          6     -0.47193445                    1_GWF-(1,74,31)      -8.4634802                  1_GWF-(1,145,261)
          7          1          7      0.38297995                  1_GWF-(1,200,113)      -5.5626582                  1_GWF-(1,145,261)
          8          1          8      0.35082112                  1_GWF-(1,198,112)      -4.8659300                  1_GWF-(1,145,261)
          9          1          9      0.31504549                  1_GWF-(1,196,111)      -2.7001265                  1_GWF-(1,209,226)
         10          1         10      0.29749797                  1_GWF-(1,194,111)      -2.9092766                  1_GWF-(1,209,226)
         11          1         11      0.26907791                  1_GWF-(1,192,112)      -2.1730934                  1_GWF-(1,209,226)
         12          1         12      0.23664957                  1_GWF-(1,189,113)      -2.1853542                  1_GWF-(1,209,226)
         13          1         13      0.20432682                  1_GWF-(1,189,115)      -1.5879948                  1_GWF-(1,209,226)
         14          1         14      0.18301135                  1_GWF-(1,127,167)      -1.5307166                  1_GWF-(1,209,226)
         15          1         15      0.17188040                  1_GWF-(1,127,167)      -1.3915557                  1_GWF-(1,207,228)
         16          1         16      0.15924952                  1_GWF-(1,128,168)      -1.3945143                  1_GWF-(1,207,228)
         17          1         17      0.15764990                  1_GWF-(1,128,170)      -1.2967624                  1_GWF-(1,207,228)
         18          1         18      0.16740651                  1_GWF-(1,222,170)      -1.3818799                  1_GWF-(1,207,228)
         19          1         19      0.16296691                  1_GWF-(1,223,169)      -1.0773657                  1_GWF-(1,207,228)
         20          1         20      0.15985409                  1_GWF-(1,223,168)      -1.0602730                  1_GWF-(1,207,228)
         21          1         21      0.15834641                  1_GWF-(1,224,167)     -0.80199388                  1_GWF-(1,207,228)
         22          1         22      0.15147604                  1_GWF-(1,229,145)     -0.96585003                  1_GWF-(1,138,266)
         23          1         23      0.14003462                  1_GWF-(1,227,145)     -0.94287161                  1_GWF-(1,138,266)
         24          1         24      0.13361338                  1_GWF-(1,120,191)      -1.0627895                  1_GWF-(1,138,266)
         25          1         25      0.13460259                  1_GWF-(1,120,194)     -0.85199573                  1_GWF-(1,138,266)
         26          1         26      0.14074586                  1_GWF-(1,118,196)     -0.93062385                  1_GWF-(1,138,266)
         27          1         27      0.13572915                  1_GWF-(1,112,195)     -0.66398198                  1_GWF-(1,138,266)
         28          1         28      0.12949719                  1_GWF-(1,100,192)     -0.75082473                  1_GWF-(1,138,266)
         29          1         29      0.12306443                   1_GWF-(1,97,194)     -0.52848581                  1_GWF-(1,138,266)
         30          1         30      0.11427520                  1_GWF-(1,169,158)     -0.58961900                  1_GWF-(1,138,266)
         31          1         31  9.90854063E-02                  1_GWF-(1,170,161)     -0.35764445                  1_GWF-(1,138,266)
         32          1         32  9.18490743E-02                  1_GWF-(1,171,164)      0.35944427                  1_GWF-(1,137,267)
         33          1         33  7.94279270E-02                  1_GWF-(1,171,165)      0.26184901                  1_GWF-(1,231,169)
         34          1         34  8.09688914E-02                  1_GWF-(1,170,166)      0.28853043                  1_GWF-(1,231,169)
         35          1         35  5.07684115E-02                  1_GWF-(1,169,167)      0.23359724                  1_GWF-(1,233,167)
         36          1         36      0.23162332                  1_GWF-(1,168,167)      0.34041906                  1_GWF-(1,138,266)
         37          1         37     -0.14601745                  1_GWF-(1,168,166)      0.15328926                  1_GWF-(1,239,161)
         38          1         38  3.53758185E-02                  1_GWF-(1,165,168)      0.18424614                  1_GWF-(1,235,165)
         39          1         39  7.48190748E-02                  1_GWF-(1,163,168)      0.32142125                  1_GWF-(1,235,165)
         40          1         40 -2.52878996E-03                  1_GWF-(1,235,165)      0.11680707                  1_GWF-(1,236,164)
         41          1         41  1.62033820E-02                  1_GWF-(1,160,169)      0.13163364                  1_GWF-(1,235,165)
         42          1         42  8.05529113E-02                  1_GWF-(1,158,170)      0.45443798                  1_GWF-(1,235,165)
         43          1         43 -4.08831094E-02                  1_GWF-(1,159,168) -6.74052539E-02                  1_GWF-(1,169,101)
         44          1         44      0.14851215                  1_GWF-(1,167,105)      0.61764104                  1_GWF-(1,237,163)
         45          1         45  2.18378365E-02                  1_GWF-(1,158,145) -3.52829111E-02                   1_GWF-(1,147,75)
         46          1         46  6.60831101E-02                  1_GWF-(1,157,145)  8.77349211E-02                  1_GWF-(1,231,169)
         47          1         47 -2.56666788E-02                  1_GWF-(1,153,199)  9.81623927E-02                  1_GWF-(1,231,169)
         48          1         48 -7.52584327E-04                  1_GWF-(1,231,169) -2.57514664E-02                   1_GWF-(1,125,87)
         49          2          1      -6.5406162                  1_GWF-(1,190,109)       15.708735                   1_GWF-(1,139,10)
         50          2          2     -0.58027399                   1_GWF-(1,140,11)       4.6449152                   1_GWF-(1,141,15)
         51          2          3     -0.23043741                   1_GWF-(1,142,15)       1.9827738                   1_GWF-(1,144,16)
         52          2          4     -0.17659704                   1_GWF-(1,144,16)       1.2277285                    1_GWF-(1,60,25)
         53          2          5     -0.10382856                   1_GWF-(1,145,17)      0.62066925                   1_GWF-(1,147,19)
         54          2          6 -7.52964060E-02                   1_GWF-(1,146,19)       1.0173994                    1_GWF-(1,60,25)
         55          2          7 -3.84849209E-02                   1_GWF-(1,147,20)      0.25195836                    1_GWF-(1,60,25)
         56          2          8 -2.24233379E-02                   1_GWF-(1,149,23)      0.23286739                    1_GWF-(1,60,25)
         57          2          9 -1.24468241E-02                   1_GWF-(1,149,25)  8.05488514E-02                    1_GWF-(1,60,25)
         58          2         10 -1.13750403E-02                   1_GWF-(1,124,46) -2.07013393E-02                   1_GWF-(1,150,22)
         59          2         11  5.18059240E-03                   1_GWF-(1,148,20) -1.27832792E-02                    1_GWF-(1,60,25)
         60          2         12 -1.08015013E-03                   1_GWF-(1,123,52) -2.11382940E-02                    1_GWF-(1,60,25)
         61          2         13 -3.01792027E-04                   1_GWF-(1,124,47) -2.09078629E-03                    1_GWF-(1,60,25)
         62          3          1      -1.9233826                    1_GWF-(1,70,97)       21.681730                   1_GWF-(1,209,57)
         63          3          2     -0.80600585                   1_GWF-(1,207,58)       6.5898036                   1_GWF-(1,196,39)
         64          3          3     -0.32243258                   1_GWF-(1,141,14)       3.4829175                   1_GWF-(1,148,13)
         65          3          4     -0.33203803                   1_GWF-(1,145,14)      -3.3352085                  1_GWF-(1,117,282)
         66          3          5     -0.23446165                   1_GWF-(1,145,16)      -2.0761806                  1_GWF-(1,117,282)
         67          3          6     -0.20532946                   1_GWF-(1,146,17)      -1.4802187                  1_GWF-(1,117,282)
         68          3          7     -0.17326401                   1_GWF-(1,147,19)      -1.1915519                  1_GWF-(1,117,282)
         69          3          8     -0.11045730                   1_GWF-(1,148,21)     -0.80048676                  1_GWF-(1,117,282)
         70          3          9 -7.66426339E-02                   1_GWF-(1,149,24)     -0.56676007                  1_GWF-(1,117,282)
         71          3         10 -5.68579121E-02                   1_GWF-(1,150,26)      0.32892980                  1_GWF-(1,107,255)
         72          3         11 -3.59232056E-02                   1_GWF-(1,151,28)      0.25687544                  1_GWF-(1,107,255)
         73          3         12 -2.04666299E-02                   1_GWF-(1,152,30)      0.17066175                  1_GWF-(1,107,255)
         74          3         13 -1.55658426E-02                   1_GWF-(1,127,50)      0.12396267                  1_GWF-(1,107,255)
         75          3         14 -1.19422683E-02                   1_GWF-(1,127,50)  8.01915351E-02                  1_GWF-(1,107,255)
         76          3         15 -1.04361846E-02                   1_GWF-(1,128,51)  5.71608733E-02                  1_GWF-(1,107,255)
         77          3         16 -8.55683644E-03                   1_GWF-(1,128,51)  4.47150505E-02                  1_GWF-(1,107,255)
         78          3         17 -5.66370839E-03                   1_GWF-(1,128,51)  3.40212132E-02                  1_GWF-(1,107,255)
         79          3         18 -3.98734900E-03                   1_GWF-(1,128,51)  2.26322185E-02                  1_GWF-(1,107,255)
         80          3         19 -3.18562508E-03                   1_GWF-(1,128,51)  1.56745428E-02                  1_GWF-(1,117,282)
         81          3         20 -2.57978742E-03                   1_GWF-(1,128,51)  8.37812046E-03                  1_GWF-(1,117,282)
         82          3         21 -1.73994659E-03                   1_GWF-(1,128,51) -6.06770293E-03                    1_GWF-(1,60,25)
         83          3         22 -1.06400451E-03                   1_GWF-(1,127,50) -3.86008053E-03                    1_GWF-(1,60,25)
         84          3         23 -6.34689879E-04                   1_GWF-(1,127,49) -2.82080593E-03                    1_GWF-(1,60,25)
         85          4          1      -1.3230913                    1_GWF-(1,65,95)       22.126121                    1_GWF-(1,65,95)
         86          4          2     -0.74274430                    1_GWF-(1,64,94)       6.9920532                   1_GWF-(1,73,100)
         87          4          3     -0.45453488                   1_GWF-(1,197,37)       3.9144899                    1_GWF-(1,139,5)
         88          4          4     -0.21240461                   1_GWF-(1,170,20)       2.1154516                   1_GWF-(1,170,21)
         89          4          5     -0.23181361                   1_GWF-(1,168,21)       2.1386826                  1_GWF-(1,239,161)
         90          4          6     -0.16798166                   1_GWF-(1,167,22)       1.1535229                   1_GWF-(1,166,25)
         91          4          7     -0.18548771                   1_GWF-(1,165,23)       1.3973562                  1_GWF-(1,239,161)
         92          4          8     -0.15324246                   1_GWF-(1,163,24)      0.71101093                   1_GWF-(1,157,25)
         93          4          9     -0.13223447                   1_GWF-(1,159,25)       1.1257390                  1_GWF-(1,239,161)
         94          4         10 -9.80799693E-02                   1_GWF-(1,158,26)      0.41939945                  1_GWF-(1,239,161)
         95          4         11 -8.78071583E-02                   1_GWF-(1,156,27)      0.71870863                  1_GWF-(1,239,161)
         96          4         12 -6.01376529E-02                   1_GWF-(1,155,27)      0.20139265                  1_GWF-(1,239,161)
         97          4         13 -4.47429412E-02                   1_GWF-(1,154,28)      0.29885080                  1_GWF-(1,239,161)
         98          4         14 -2.41252356E-02                   1_GWF-(1,154,28)  9.16344897E-02                  1_GWF-(1,239,161)
         99          4         15 -1.65217380E-02                   1_GWF-(1,153,28)      0.13265661                  1_GWF-(1,239,161)
        100          4         16 -9.87550619E-03                   1_GWF-(1,153,29)  4.20681918E-02                  1_GWF-(1,239,161)
        101          4         17 -7.84386719E-03                   1_GWF-(1,129,51)  5.93556423E-02                  1_GWF-(1,239,161)
        102          4         18 -5.36211738E-03                   1_GWF-(1,129,50)  2.37414342E-02                   1_GWF-(1,130,51)
        103          4         19 -4.95351220E-03                   1_GWF-(1,129,50) -3.17514251E-02                  1_GWF-(1,117,282)
        104          4         20 -3.34578977E-03                   1_GWF-(1,128,50)  1.39925450E-02                   1_GWF-(1,130,50)
        105          4         21 -3.14610161E-03                   1_GWF-(1,128,49) -2.22817217E-02                  1_GWF-(1,117,282)
        106          4         22 -2.03680812E-03                   1_GWF-(1,128,49)  8.04284971E-03                   1_GWF-(1,129,50)
        107          4         23 -1.98221403E-03                   1_GWF-(1,127,48) -1.12268862E-02                  1_GWF-(1,117,282)
        108          4         24 -1.51681127E-03                   1_GWF-(1,127,48)  4.29815328E-03                   1_GWF-(1,124,46)
        109          4         25 -1.26684746E-03                   1_GWF-(1,126,47) -6.14021320E-03                  1_GWF-(1,117,282)
        110          4         26 -7.88297766E-04                   1_GWF-(1,126,47)  2.09018124E-03                   1_GWF-(1,124,45)
        111          5          1     -0.95928854                   1_GWF-(1,193,46)       13.706228                   1_GWF-(1,193,47)
        112          5          2     -0.68927227                   1_GWF-(1,194,46)       5.1235665                   1_GWF-(1,179,26)
        113          5          3     -0.49208038                   1_GWF-(1,194,47)       2.8573288                   1_GWF-(1,179,26)
        114          5          4     -0.24243035                    1_GWF-(1,44,98)       1.8547755                    1_GWF-(1,43,95)
        115          5          5     -0.18122568                    1_GWF-(1,42,93)       1.3775563                    1_GWF-(1,43,95)
        116          5          6     -0.15901047                    1_GWF-(1,43,91)      0.95075257                    1_GWF-(1,45,92)
        117          5          7     -0.13747580                    1_GWF-(1,43,91)     -0.76670213                    1_GWF-(1,49,54)
        118          5          8     -0.11160073                    1_GWF-(1,44,91)     -0.55750741                    1_GWF-(1,49,54)
        119          5          9 -9.06185353E-02                   1_GWF-(1,227,93)     -0.51793954                  1_GWF-(1,240,160)
        120          5         10 -7.51498567E-02                   1_GWF-(1,199,77)     -0.40083384                  1_GWF-(1,240,160)
        121          5         11 -5.95169570E-02                   1_GWF-(1,198,76)     -0.43141599                  1_GWF-(1,240,160)
        122          5         12 -4.65749149E-02                   1_GWF-(1,197,75)     -0.35338436                  1_GWF-(1,240,160)
        123          5         13 -3.74101466E-02                   1_GWF-(1,197,75)     -0.34828709                  1_GWF-(1,240,160)
        124          5         14 -2.89898921E-02                   1_GWF-(1,134,54)     -0.24590969                  1_GWF-(1,240,160)
        125          5         15 -2.67330297E-02                   1_GWF-(1,134,54)     -0.21831539                  1_GWF-(1,240,160)
        126          5         16 -2.50576018E-02                   1_GWF-(1,134,54)     -0.15811989                  1_GWF-(1,240,160)
        127          5         17 -2.46683826E-02                   1_GWF-(1,134,54)     -0.16435894                  1_GWF-(1,240,160)
        128          5         18 -2.21294940E-02                   1_GWF-(1,133,53) -9.12515171E-02                  1_GWF-(1,240,160)
        129          5         19 -1.91385886E-02                   1_GWF-(1,134,53) -6.95926495E-02                  1_GWF-(1,240,160)
        130          5         20 -1.41159990E-02                   1_GWF-(1,134,53) -4.21710734E-02                    1_GWF-(1,50,53)
        131          5         21 -1.05254878E-02                   1_GWF-(1,134,53) -4.50383193E-02                    1_GWF-(1,50,53)
        132          5         22 -8.04112847E-03                   1_GWF-(1,133,52) -3.52299778E-02                    1_GWF-(1,50,53)
        133          5         23 -6.62798472E-03                   1_GWF-(1,133,52) -3.12334104E-02                    1_GWF-(1,50,53)
        134          5         24 -5.63004492E-03                   1_GWF-(1,133,52) -2.13950183E-02                    1_GWF-(1,50,53)
        135          5         25 -4.67803130E-03                   1_GWF-(1,132,52) -1.73117443E-02                    1_GWF-(1,50,53)
        136          5         26 -3.80552418E-03                   1_GWF-(1,131,51) -1.13892087E-02                    1_GWF-(1,50,53)
        137          5         27 -2.94827380E-03                   1_GWF-(1,131,51) -1.00712213E-02                    1_GWF-(1,50,53)
        138          5         28 -2.10033689E-03                   1_GWF-(1,131,51) -7.18567985E-03                    1_GWF-(1,50,53)
        139          5         29 -1.38385284E-03                   1_GWF-(1,130,51) -6.23928555E-03                    1_GWF-(1,50,53)
        140          5         30 -8.74499911E-04                   1_GWF-(1,130,51) -4.10225991E-03                    1_GWF-(1,50,53)
        141          6          1     -0.76944347                  1_GWF-(1,220,117)       8.8022361                  1_GWF-(1,220,117)
        142          6          2     -0.37536033                    1_GWF-(1,60,87)       3.5450328                  1_GWF-(1,226,113)
        143          6          3     -0.45510769                    1_GWF-(1,58,89)       2.5515014                  1_GWF-(1,226,113)
        144          6          4     -0.38015997                  1_GWF-(1,227,113)      -1.4863349                    1_GWF-(1,26,94)
        145          6          5     -0.25720785                  1_GWF-(1,224,110)      -2.9698187                    1_GWF-(1,26,94)
        146          6          6     -0.15986436                    1_GWF-(1,52,86)      -1.8482209                    1_GWF-(1,26,94)
        147          6          7     -0.14707603                   1_GWF-(1,220,98)      -1.8505658                    1_GWF-(1,26,94)
        148          6          8     -0.13075844                   1_GWF-(1,222,97)     -0.87848421                    1_GWF-(1,51,52)
        149          6          9     -0.12705183                   1_GWF-(1,223,96)      -1.0802946                    1_GWF-(1,51,52)
        150          6         10     -0.10893006                   1_GWF-(1,223,95)     -0.63291257                    1_GWF-(1,51,52)
        151          6         11 -8.87948752E-02                   1_GWF-(1,201,80)     -0.81675294                    1_GWF-(1,51,52)
        152          6         12 -7.27818110E-02                   1_GWF-(1,201,80)      0.41837739                    1_GWF-(1,50,53)
        153          6         13 -6.47913285E-02                   1_GWF-(1,200,79)      0.52507443                    1_GWF-(1,50,53)
        154          6         14 -5.30254659E-02                   1_GWF-(1,200,79)      0.27994946                    1_GWF-(1,50,53)
        155          6         15 -4.45613779E-02                   1_GWF-(1,200,80)      0.36045241                    1_GWF-(1,50,53)
        156          6         16 -3.31353546E-02                   1_GWF-(1,200,80)      0.21125485                    1_GWF-(1,50,53)
        157          6         17 -2.81624760E-02                   1_GWF-(1,200,81)      0.30217776                    1_GWF-(1,50,53)
        158          6         18 -2.21152655E-02                   1_GWF-(1,199,80)      0.16970972                    1_GWF-(1,50,53)
        159          6         19 -1.84941067E-02                   1_GWF-(1,136,56)      0.19199860                    1_GWF-(1,50,53)
        160          6         20 -1.52100884E-02                   1_GWF-(1,135,55)  7.04763720E-02                    1_GWF-(1,50,53)
        161          6         21 -1.37315098E-02                   1_GWF-(1,133,54) -6.74512091E-02                  1_GWF-(1,240,160)
        162          6         22 -1.12335214E-02                   1_GWF-(1,133,54) -4.28409307E-02                  1_GWF-(1,240,160)
        163          6         23 -9.70903820E-03                   1_GWF-(1,132,53) -5.66256085E-02                  1_GWF-(1,240,160)
        164          6         24 -8.37092372E-03                   1_GWF-(1,131,53) -3.58488013E-02                  1_GWF-(1,240,160)
        165          6         25 -8.30478436E-03                   1_GWF-(1,131,53) -3.95510668E-02                  1_GWF-(1,240,160)
        166          6         26 -7.37066338E-03                   1_GWF-(1,131,53) -2.17609500E-02                  1_GWF-(1,240,160)
        167          6         27 -6.38423364E-03                   1_GWF-(1,131,53) -2.27487344E-02                  1_GWF-(1,240,160)
        168          6         28 -5.30785292E-03                   1_GWF-(1,131,53) -1.51452569E-02                  1_GWF-(1,240,160)
        169          6         29 -4.79107693E-03                   1_GWF-(1,132,54) -1.79654645E-02                  1_GWF-(1,240,160)
        170          6         30 -3.88175838E-03                   1_GWF-(1,133,54) -1.18960406E-02                  1_GWF-(1,240,160)
        171          6         31 -3.34111766E-03                   1_GWF-(1,133,54) -1.22644891E-02                  1_GWF-(1,240,160)
        172          6         32 -2.62762267E-03                   1_GWF-(1,134,55) -7.25803984E-03                  1_GWF-(1,240,160)
        173          6         33 -2.04654307E-03                   1_GWF-(1,134,55)  5.82962484E-03                  1_GWF-(1,219,189)
        174          6         34 -1.49484747E-03                   1_GWF-(1,135,55)  3.67122869E-03                  1_GWF-(1,219,189)
        175          6         35 -1.11412933E-03                   1_GWF-(1,135,55)  3.21677342E-03                  1_GWF-(1,219,189)
        176          6         36 -6.76305479E-04                   1_GWF-(1,135,55)  2.99249215E-03                  1_GWF-(1,219,189)
        177          7          1     -0.51510500                  1_GWF-(1,121,131)       5.4515370                  1_GWF-(1,121,131)
        178          7          2     -0.19297171                   1_GWF-(1,85,114)       2.0023181                   1_GWF-(1,219,83)
        179          7          3     -0.20986326                   1_GWF-(1,85,114)       1.1342122                    1_GWF-(1,69,75)
        180          7          4     -0.20381546                   1_GWF-(1,86,115)      0.70052459                   1_GWF-(1,77,116)
        181          7          5     -0.17695122                   1_GWF-(1,88,116)     -0.96192338                    1_GWF-(1,58,37)
        182          7          6     -0.15375773                   1_GWF-(1,78,115)      -1.0067652                    1_GWF-(1,58,37)
        183          7          7     -0.13581336                   1_GWF-(1,176,84)      -1.4808935                    1_GWF-(1,58,37)
        184          7          8     -0.11072684                  1_GWF-(1,180,155)      -1.0917281                    1_GWF-(1,58,37)
        185          7          9     -0.11054526                  1_GWF-(1,174,147)      -1.2510689                    1_GWF-(1,58,37)
        186          7         10     -0.11210891                  1_GWF-(1,173,148)     -0.76114139                    1_GWF-(1,58,37)
        187          7         11     -0.11712670                  1_GWF-(1,173,148)     -0.97474944                    1_GWF-(1,58,37)
        188          7         12     -0.10621374                  1_GWF-(1,172,148)     -0.73047635                    1_GWF-(1,58,37)
        189          7         13 -9.17861331E-02                  1_GWF-(1,171,148)     -0.90201502                    1_GWF-(1,58,37)
        190          7         14 -7.25650203E-02                   1_GWF-(1,193,79)     -0.62994307                    1_GWF-(1,58,37)
        191          7         15 -6.57667786E-02                   1_GWF-(1,153,68)     -0.62587766                    1_GWF-(1,58,37)
        192          7         16 -5.44292826E-02                   1_GWF-(1,153,67)     -0.26322031                    1_GWF-(1,58,37)
        193          7         17 -4.59596756E-02                   1_GWF-(1,153,66)      0.14444146                    1_GWF-(1,26,94)
        194          7         18 -4.16399799E-02                   1_GWF-(1,152,64)      0.10332028                    1_GWF-(1,49,54)
        195          7         19 -3.74065863E-02                   1_GWF-(1,152,63)      0.11830189                    1_GWF-(1,49,54)
        196          7         20 -3.24283539E-02                   1_GWF-(1,151,61)      0.10360043                    1_GWF-(1,49,54)
        197          7         21 -3.02412249E-02                   1_GWF-(1,150,60)      0.10813098                    1_GWF-(1,49,54)
        198          7         22 -2.74836047E-02                   1_GWF-(1,149,59) -8.14436977E-02                  1_GWF-(1,240,160)
        199          7         23 -2.51238907E-02                   1_GWF-(1,148,57) -8.23436909E-02                  1_GWF-(1,240,160)
        200          7         24 -2.35808591E-02                   1_GWF-(1,148,57) -6.67839549E-02                  1_GWF-(1,240,160)
        201          7         25 -2.16495953E-02                   1_GWF-(1,147,56) -7.08984005E-02                  1_GWF-(1,240,160)
        202          7         26 -1.88809830E-02                   1_GWF-(1,147,56) -6.09040411E-02                  1_GWF-(1,240,160)
        203          7         27 -1.57754401E-02                   1_GWF-(1,146,56) -5.91883476E-02                  1_GWF-(1,240,160)
        204          7         28 -1.23936022E-02                   1_GWF-(1,145,57) -4.68501534E-02                  1_GWF-(1,240,160)
        205          7         29 -1.06593489E-02                   1_GWF-(1,144,58) -4.05622496E-02                  1_GWF-(1,240,160)
        206          7         30 -9.76430199E-03                   1_GWF-(1,144,58) -3.74521968E-02                  1_GWF-(1,240,160)
        207          7         31 -9.00929195E-03                   1_GWF-(1,144,59) -3.81894468E-02                  1_GWF-(1,240,160)
        208          7         32 -8.28274269E-03                   1_GWF-(1,144,59) -3.33655514E-02                  1_GWF-(1,240,160)
        209          7         33 -7.24061756E-03                   1_GWF-(1,144,59) -2.97255048E-02                  1_GWF-(1,240,160)
        210          7         34 -5.87873107E-03                   1_GWF-(1,145,60) -2.09699503E-02                  1_GWF-(1,240,160)
        211          7         35 -4.45834973E-03                   1_GWF-(1,145,60) -2.63539196E-02                  1_GWF-(1,240,160)
        212          7         36 -5.57552386E-03                   1_GWF-(1,145,59)  7.73582163E-03                   1_GWF-(1,87,112)
        213          7         37 -5.17142633E-03                   1_GWF-(1,86,110)  5.54939506E-02                  1_GWF-(1,240,160)
        214          7         38 -3.59837477E-04                  1_GWF-(1,240,160)  3.43155789E-03                   1_GWF-(1,84,110)
        215          8          1     -0.42463766                  1_GWF-(1,170,125)       4.5624646                  1_GWF-(1,170,124)
        216          8          2     -0.14947403                  1_GWF-(1,171,124)       1.6593634                  1_GWF-(1,170,124)
        217          8          3     -0.14848094                  1_GWF-(1,172,124)      0.80180108                  1_GWF-(1,170,124)
        218          8          4     -0.12994074                  1_GWF-(1,173,123)      0.42221635                   1_GWF-(1,73,130)
        219          8          5     -0.11300066                  1_GWF-(1,173,124)      0.34596434                  1_GWF-(1,155,116)
        220          8          6 -9.76851224E-02                  1_GWF-(1,168,122)      0.29300693                  1_GWF-(1,158,114)
        221          8          7 -9.09411418E-02                  1_GWF-(1,163,121)      0.29129336                    1_GWF-(1,50,53)
        222          8          8 -7.58829426E-02                  1_GWF-(1,161,121)      0.31082769                    1_GWF-(1,50,53)
        223          8          9 -6.09927904E-02                  1_GWF-(1,158,126)      0.38195324                    1_GWF-(1,50,53)
        224          8         10 -5.68280594E-02                  1_GWF-(1,157,131)      0.23191044                    1_GWF-(1,50,53)
        225          8         11 -5.58524129E-02                  1_GWF-(1,157,134)     -0.28733193                    1_GWF-(1,49,54)
        226          8         12 -5.13810786E-02                  1_GWF-(1,158,135)     -0.21455601                    1_GWF-(1,49,54)
        227          8         13 -4.89036338E-02                  1_GWF-(1,162,138)     -0.23681281                    1_GWF-(1,49,54)
        228          8         14 -4.30009682E-02                  1_GWF-(1,167,141)     -0.18529428                    1_GWF-(1,49,54)
        229          8         15 -3.74226142E-02                  1_GWF-(1,168,142)     -0.21479131                    1_GWF-(1,49,54)
        230          8         16 -3.29793936E-02                  1_GWF-(1,168,142)     -0.15710671                    1_GWF-(1,49,54)
        231          8         17 -2.89801393E-02                  1_GWF-(1,168,144)      0.16282448                    1_GWF-(1,50,53)
        232          8         18 -2.32989124E-02                  1_GWF-(1,168,145)  8.03076818E-02                    1_GWF-(1,50,53)
        233          8         19 -1.95892873E-02                  1_GWF-(1,166,147) -7.10147242E-02                  1_GWF-(1,240,160)
        234          8         20 -1.72029725E-02                  1_GWF-(1,165,149) -5.73600476E-02                  1_GWF-(1,240,160)
        235          8         21 -1.51055581E-02                  1_GWF-(1,162,149) -6.81757405E-02                  1_GWF-(1,240,160)
        236          8         22 -1.35869640E-02                   1_GWF-(1,147,62) -5.90839725E-02                  1_GWF-(1,240,160)
        237          8         23 -1.18973145E-02                   1_GWF-(1,147,60) -6.02443304E-02                  1_GWF-(1,240,160)
        238          8         24 -9.81380454E-03                   1_GWF-(1,147,58) -3.80234695E-02                  1_GWF-(1,240,160)
        239          8         25 -8.28115953E-03                   1_GWF-(1,148,56) -3.58945685E-02                  1_GWF-(1,240,160)
        240          8         26 -7.08364524E-03                   1_GWF-(1,150,56) -2.93047011E-02                  1_GWF-(1,240,160)
        241          8         27 -6.55094129E-03                   1_GWF-(1,152,55) -3.37396805E-02                  1_GWF-(1,240,160)
        242          8         28 -6.66124612E-03                   1_GWF-(1,155,56) -2.97813261E-02                  1_GWF-(1,240,160)
        243          8         29 -6.90602075E-03                   1_GWF-(1,155,56) -2.86610578E-02                  1_GWF-(1,240,160)
        244          8         30 -6.83712211E-03                   1_GWF-(1,155,56) -2.07458493E-02                  1_GWF-(1,240,160)
        245          8         31 -6.41349543E-03                   1_GWF-(1,155,56) -1.93727438E-02                  1_GWF-(1,240,160)
        246          8         32 -5.46651664E-03                   1_GWF-(1,154,56)  1.25233367E-02                  1_GWF-(1,239,161)
        247          8         33 -4.40248669E-03                   1_GWF-(1,152,56)  1.22898310E-02                  1_GWF-(1,239,161)
        248          8         34 -3.87406472E-03                   1_GWF-(1,152,57)  6.97450703E-03                  1_GWF-(1,239,161)
        249          8         35 -2.74119716E-03                   1_GWF-(1,150,58) -6.77728444E-03                  1_GWF-(1,146,260)
        250          8         36 -3.89248140E-03                   1_GWF-(1,149,59) -1.24265862E-02                  1_GWF-(1,146,260)
        251          8         37  1.15584830E-04                  1_GWF-(1,146,260) -4.46895356E-03                  1_GWF-(1,173,136)
        252          9          1     -0.26550606                  1_GWF-(1,146,105)       2.8725155                  1_GWF-(1,146,105)
        253          9          2 -6.63804698E-02                   1_GWF-(1,133,95)      0.88832991                  1_GWF-(1,146,105)
        254          9          3 -5.35942816E-02                   1_GWF-(1,133,95)      0.40057851                  1_GWF-(1,146,105)
        255          9          4 -4.25631957E-02                   1_GWF-(1,134,96)      0.27247819                  1_GWF-(1,137,103)
        256          9          5 -5.12763299E-02                  1_GWF-(1,136,102)      0.21954762                  1_GWF-(1,135,107)
        257          9          6 -5.61582483E-02                  1_GWF-(1,137,103)      0.17250263                  1_GWF-(1,143,107)
        258          9          7 -5.17564707E-02                  1_GWF-(1,137,103)      0.12157342                  1_GWF-(1,143,107)
        259          9          8 -4.90495892E-02                  1_GWF-(1,137,103)     -0.12724313                    1_GWF-(1,42,63)
        260          9          9 -4.33097143E-02                  1_GWF-(1,138,104)     -0.14277985                    1_GWF-(1,42,63)
        261          9         10 -3.55441689E-02                  1_GWF-(1,139,109)     -0.11415010                    1_GWF-(1,42,63)
        262          9         11 -3.06547007E-02                  1_GWF-(1,139,118)     -0.10122905                    1_GWF-(1,42,63)
        263          9         12 -2.78996823E-02                  1_GWF-(1,140,120) -7.90862485E-02                    1_GWF-(1,42,63)
        264          9         13 -2.54109709E-02                  1_GWF-(1,142,121)  7.42900326E-02                    1_GWF-(1,50,53)
        265          9         14 -2.09219005E-02                  1_GWF-(1,144,122)  7.16828654E-02                    1_GWF-(1,50,53)
        266          9         15 -1.93230786E-02                  1_GWF-(1,147,124)  8.60861641E-02                    1_GWF-(1,50,53)
        267          9         16 -1.82620478E-02                  1_GWF-(1,149,126)  8.41088965E-02                    1_GWF-(1,50,53)
        268          9         17 -1.52750579E-02                  1_GWF-(1,152,127)  6.34659574E-02                    1_GWF-(1,50,53)
        269          9         18 -1.30070762E-02                  1_GWF-(1,154,128)  2.76996670E-02                    1_GWF-(1,42,63)
        270          9         19 -1.22112695E-02                   1_GWF-(1,149,72)  3.92965510E-02                    1_GWF-(1,42,63)
        271          9         20 -1.17779519E-02                   1_GWF-(1,147,70)  2.22102273E-02                    1_GWF-(1,42,63)
        272          9         21 -1.05832566E-02                   1_GWF-(1,146,68)  2.95733880E-02                  1_GWF-(1,240,160)
        273          9         22 -8.72654087E-03                   1_GWF-(1,144,66)  2.32169360E-02                  1_GWF-(1,240,160)
        274          9         23 -7.70100060E-03                   1_GWF-(1,143,63)  5.45356754E-02                  1_GWF-(1,240,160)
        275          9         24 -6.78409485E-03                   1_GWF-(1,144,62) -3.81593977E-02                    1_GWF-(1,42,63)
        276          9         25 -6.25440842E-03                   1_GWF-(1,144,61)  1.00513440E-02                   1_GWF-(1,161,53)
        277          9         26 -9.05801304E-03                   1_GWF-(1,144,58) -1.12843483E-02                  1_GWF-(1,240,160)
        278          9         27  1.98980885E-03                  1_GWF-(1,138,135)  5.76738084E-02                  1_GWF-(1,240,160)
        279          9         28 -4.50892233E-03                   1_GWF-(1,147,57)  6.76801386E-03                   1_GWF-(1,163,48)
        280          9         29 -4.59227985E-03                   1_GWF-(1,155,53)  3.06810730E-02                  1_GWF-(1,240,160)
        281          9         30 -2.85855668E-03                   1_GWF-(1,152,54)  5.28230151E-03                   1_GWF-(1,168,40)
        282          9         31 -3.01666528E-03                   1_GWF-(1,156,51)  1.74190390E-02                  1_GWF-(1,240,160)
        283          9         32 -2.25361422E-03                   1_GWF-(1,155,52)  4.27055610E-03                   1_GWF-(1,168,40)
        284          9         33 -2.33160509E-03                   1_GWF-(1,156,50)  9.64500310E-03                  1_GWF-(1,219,189)
        285          9         34 -1.89030419E-03                   1_GWF-(1,156,49)  3.34138696E-03                   1_GWF-(1,168,40)
        286          9         35 -2.12353444E-03                   1_GWF-(1,156,48)  4.28872480E-03                  1_GWF-(1,219,189)
        287          9         36 -2.96411500E-03                   1_GWF-(1,158,41)  2.26625458E-02                  1_GWF-(1,219,189)
        288          9         37  7.67490633E-04                   1_GWF-(1,155,49)  2.14229129E-03                   1_GWF-(1,168,40)
        289         10          1 -6.44142294E-02                  1_GWF-(1,159,104)      0.54393310                  1_GWF-(1,159,104)
        290         10          2 -9.24261810E-03                   1_GWF-(1,73,157)      0.16099429                  1_GWF-(1,159,104)
        291         10          3 -6.33376425E-03                    1_GWF-(1,86,71)  5.16209871E-02                    1_GWF-(1,86,71)
        292         10          4 -4.74132709E-03                    1_GWF-(1,86,71)  2.51176421E-02                   1_GWF-(1,60,185)
        293         10          5 -3.72148302E-03                   1_GWF-(1,62,182)  1.69966446E-02                   1_GWF-(1,60,185)
        294         10          6 -3.16046023E-03                    1_GWF-(1,92,73)  1.41756679E-02                   1_GWF-(1,69,171)
        295         10          7 -3.00908504E-03                   1_GWF-(1,69,170)  1.18205043E-02                   1_GWF-(1,74,174)
        296         10          8 -2.94050034E-03                   1_GWF-(1,69,171)  9.65412252E-03                   1_GWF-(1,75,175)
        297         10          9 -2.78150716E-03                   1_GWF-(1,71,173)  7.47450532E-03                   1_GWF-(1,78,176)
        298         10         10 -2.58794382E-03                   1_GWF-(1,72,174)  7.77497483E-03                  1_GWF-(1,240,160)
        299         10         11 -2.39753382E-03                   1_GWF-(1,74,175)  8.34289459E-03                  1_GWF-(1,240,160)
        300         10         12 -2.14485698E-03                   1_GWF-(1,76,176)  7.77730184E-03                  1_GWF-(1,240,160)
        301         10         13 -1.90157839E-03                    1_GWF-(1,97,55)  6.71312851E-03                  1_GWF-(1,240,160)
        302         10         14 -1.61467195E-03                    1_GWF-(1,98,54)  6.35850760E-03                  1_GWF-(1,240,160)
        303         10         15 -1.30062976E-03                   1_GWF-(1,101,54)  5.82132655E-03                  1_GWF-(1,240,160)
        304         10         16 -1.06528362E-03                   1_GWF-(1,110,55)  6.70626007E-03                  1_GWF-(1,240,160)
        305         10         17 -9.61910283E-04                   1_GWF-(1,137,79)  6.74443060E-03                  1_GWF-(1,240,160)
        306         11          1 -8.50387880E-03                  1_GWF-(1,154,169)  5.93234772E-02                  1_GWF-(1,244,109)
        307         11          2 -1.30564641E-03                  1_GWF-(1,244,109)  2.16415456E-02                  1_GWF-(1,244,109)
        308         11          3 -1.05510985E-03                  1_GWF-(1,244,109)  6.78021122E-03                  1_GWF-(1,244,109)
        309         11          4 -9.09013859E-04                  1_GWF-(1,243,109)  4.57302053E-03                  1_GWF-(1,240,160)
        310         12          1 -1.22333782E-03                   1_GWF-(1,137,66)  1.12192904E-02                  1_GWF-(1,240,160)
        311         12          2 -2.07529638E-03                   1_GWF-(1,137,65)  1.88988850E-02                  1_GWF-(1,240,160)
        312         12          3 -1.65117291E-03                   1_GWF-(1,138,65) -4.41307076E-03                  1_GWF-(1,244,109)
        313         12          4 -1.17244523E-03                   1_GWF-(1,141,65) -6.96846190E-03                  1_GWF-(1,244,108)
        314         12          5 -9.31159024E-04                   1_GWF-(1,143,64) -3.20429530E-03                  1_GWF-(1,154,169)
        315         13          1  4.85617742E-04                   1_GWF-(1,229,60) -1.30526889E-02                  1_GWF-(1,249,127)
 --------------------------------------------------------------------------------------------------------------------------------------


 
    Solving:  Stress period:     2    Time step:     1
 
1
 STRESS PERIOD NO. 2, LENGTH =   1.000000    
 ------------------------------------------
 NUMBER OF TIME STEPS = 1
 MULTIPLIER FOR DELT =     1.000
 INITIAL TIME STEP SIZE =   1.000000    

 SLN_1 OUTER ITERATION SUMMARY
 ----------------------------------------------------------------------------------------------------------
                                OUTER      INNER                    STEP   MAXIMUM CHANGE MODEL-(CELLID) OR
 OUTER ITERATION STEP       ITERATION  ITERATION  MAXIMUM CHANGE SUCCESS             MODEL-PACKAGE-(NUMBER)
 ----------------------------------------------------------------------------------------------------------
 Model                              1          2 -2.38694527E-03                           1_GWF-(1,41,274)
 Model                              2          1 -1.44630232E-06       *                   1_GWF-(1,43,271)
 ----------------------------------------------------------------------------------------------------------


 2 CALLS TO NUMERICAL SOLUTION IN TIME STEP 1 STRESS PERIOD 2
 3 TOTAL ITERATIONS

 SLN_1 INNER ITERATION SUMMARY
 --------------------------------------------------------------------------------------------------------------------------------------
[...]


 2 CALLS TO NUMERICAL SOLUTION IN TIME STEP 1 STRESS PERIOD 357
 4 TOTAL ITERATIONS

 SLN_1 INNER ITERATION SUMMARY
 --------------------------------------------------------------------------------------------------------------------------------------
      TOTAL      OUTER      INNER                                                            MAXIMUM                                   
  ITERATION  ITERATION  ITERATION  MAXIMUM CHANGE      MAXIMUM CHANGE MODEL-(CELLID)        RESIDUAL    MAXIMUM RESIDUAL MODEL-(CELLID)
 --------------------------------------------------------------------------------------------------------------------------------------
          1          1          1  4.96038743E-02                   1_GWF-(1,46,278)     -0.18904916                   1_GWF-(1,39,273)
          2          1          2  1.20047592E-03                   1_GWF-(1,39,273) -3.06902638E-03                   1_GWF-(1,39,273)
          3          1          3  2.24151395E-05                   1_GWF-(1,41,271) -7.75448527E-05                   1_GWF-(1,41,271)
          4          2          1 -5.98032958E-05                   1_GWF-(1,46,278)  1.14372491E-04                   1_GWF-(1,46,278)
 --------------------------------------------------------------------------------------------------------------------------------------


 
    Solving:  Stress period:   358    Time step:     1
 
1
 STRESS PERIOD NO. 358, LENGTH =   1.000000    
 ------------------------------------------
 NUMBER OF TIME STEPS = 1
 MULTIPLIER FOR DELT =     1.000
 INITIAL TIME STEP SIZE =   1.000000    

 SLN_1 OUTER ITERATION SUMMARY
 ----------------------------------------------------------------------------------------------------------
                                OUTER      INNER                    STEP   MAXIMUM CHANGE MODEL-(CELLID) OR
 OUTER ITERATION STEP       ITERATION  ITERATION  MAXIMUM CHANGE SUCCESS             MODEL-PACKAGE-(NUMBER)
 ----------------------------------------------------------------------------------------------------------
 Model                              1          2 -1.54814273E-02                           1_GWF-(1,46,278)
 Model                              2          1  4.02906104E-05       *                   1_GWF-(1,40,273)
 ----------------------------------------------------------------------------------------------------------


 2 CALLS TO NUMERICAL SOLUTION IN TIME STEP 1 STRESS PERIOD 358
 3 TOTAL ITERATIONS

 SLN_1 INNER ITERATION SUMMARY
 --------------------------------------------------------------------------------------------------------------------------------------
      TOTAL      OUTER      INNER                                                            MAXIMUM                                   
  ITERATION  ITERATION  ITERATION  MAXIMUM CHANGE      MAXIMUM CHANGE MODEL-(CELLID)        RESIDUAL    MAXIMUM RESIDUAL MODEL-(CELLID)
 --------------------------------------------------------------------------------------------------------------------------------------
          1          1          1 -1.54355243E-02                   1_GWF-(1,46,278)  1.88934162E-02                   1_GWF-(1,46,278)
          2          1          2  1.47455239E-04                   1_GWF-(1,42,273) -5.37596267E-04                   1_GWF-(1,40,272)
          3          2          1  4.02906104E-05                   1_GWF-(1,40,273) -7.41792690E-05                   1_GWF-(1,40,273)
 --------------------------------------------------------------------------------------------------------------------------------------


 
    Solving:  Stress period:   359    Time step:     1
 
1
 STRESS PERIOD NO. 359, LENGTH =   1.000000    
 ------------------------------------------
 NUMBER OF TIME STEPS = 1
 MULTIPLIER FOR DELT =     1.000
 INITIAL TIME STEP SIZE =   1.000000    

 SLN_1 OUTER ITERATION SUMMARY
 ----------------------------------------------------------------------------------------------------------
                                OUTER      INNER                    STEP   MAXIMUM CHANGE MODEL-(CELLID) OR
 OUTER ITERATION STEP       ITERATION  ITERATION  MAXIMUM CHANGE SUCCESS             MODEL-PACKAGE-(NUMBER)
 ----------------------------------------------------------------------------------------------------------
 Model                              1          2 -1.51844956E-02                           1_GWF-(1,46,278)
 Model                              2          1  2.07314504E-05       *                   1_GWF-(1,43,275)
 ----------------------------------------------------------------------------------------------------------


 2 CALLS TO NUMERICAL SOLUTION IN TIME STEP 1 STRESS PERIOD 359
 3 TOTAL ITERATIONS

 SLN_1 INNER ITERATION SUMMARY
 --------------------------------------------------------------------------------------------------------------------------------------
      TOTAL      OUTER      INNER                                                            MAXIMUM                                   
  ITERATION  ITERATION  ITERATION  MAXIMUM CHANGE      MAXIMUM CHANGE MODEL-(CELLID)        RESIDUAL    MAXIMUM RESIDUAL MODEL-(CELLID)
 --------------------------------------------------------------------------------------------------------------------------------------
          1          1          1 -1.49495902E-02                   1_GWF-(1,46,278)  3.86525899E-02                   1_GWF-(1,46,278)
          2          1          2 -2.40476271E-04                   1_GWF-(1,39,273)  7.90846125E-04                   1_GWF-(1,39,273)
          3          2          1  2.07314504E-05                   1_GWF-(1,43,275)  7.62338856E-05                   1_GWF-(1,44,274)
 --------------------------------------------------------------------------------------------------------------------------------------


 
    Solving:  Stress period:   360    Time step:     1
 
1
 STRESS PERIOD NO. 360, LENGTH =   1.000000    
 ------------------------------------------
 NUMBER OF TIME STEPS = 1
 MULTIPLIER FOR DELT =     1.000
 INITIAL TIME STEP SIZE =   1.000000    

 SLN_1 OUTER ITERATION SUMMARY
 ----------------------------------------------------------------------------------------------------------
                                OUTER      INNER                    STEP   MAXIMUM CHANGE MODEL-(CELLID) OR
 OUTER ITERATION STEP       ITERATION  ITERATION  MAXIMUM CHANGE SUCCESS             MODEL-PACKAGE-(NUMBER)
 ----------------------------------------------------------------------------------------------------------
 Model                              1          2 -6.48302151E-03                           1_GWF-(1,46,278)
 Model                              2          1 -3.37831282E-06       *                   1_GWF-(1,39,273)
 ----------------------------------------------------------------------------------------------------------


 2 CALLS TO NUMERICAL SOLUTION IN TIME STEP 1 STRESS PERIOD 360
 3 TOTAL ITERATIONS

 SLN_1 INNER ITERATION SUMMARY
 --------------------------------------------------------------------------------------------------------------------------------------
      TOTAL      OUTER      INNER                                                            MAXIMUM                                   
  ITERATION  ITERATION  ITERATION  MAXIMUM CHANGE      MAXIMUM CHANGE MODEL-(CELLID)        RESIDUAL    MAXIMUM RESIDUAL MODEL-(CELLID)
 --------------------------------------------------------------------------------------------------------------------------------------
          1          1          1 -6.35627369E-03                   1_GWF-(1,46,278)  2.01822409E-02                   1_GWF-(1,39,273)
          2          1          2 -1.40048411E-04                   1_GWF-(1,39,273)  4.46185053E-04                   1_GWF-(1,39,273)
          3          2          1 -3.37831282E-06                   1_GWF-(1,39,273)  2.38735361E-05                   1_GWF-(1,39,273)
 --------------------------------------------------------------------------------------------------------------------------------------


 
    Solving:  Stress period:   361    Time step:     1
 
1
 STRESS PERIOD NO. 361, LENGTH =   1.000000    
 ------------------------------------------
 NUMBER OF TIME STEPS = 1
 MULTIPLIER FOR DELT =     1.000
 INITIAL TIME STEP SIZE =   1.000000    

 SLN_1 OUTER ITERATION SUMMARY
 ----------------------------------------------------------------------------------------------------------
                                OUTER      INNER                    STEP   MAXIMUM CHANGE MODEL-(CELLID) OR
 OUTER ITERATION STEP       ITERATION  ITERATION  MAXIMUM CHANGE SUCCESS             MODEL-PACKAGE-(NUMBER)
 ----------------------------------------------------------------------------------------------------------
 Model                              1          2 -3.59113479E-03                           1_GWF-(1,38,272)
 Model                              2          1 -1.92649654E-06       *                   1_GWF-(1,37,270)
 ----------------------------------------------------------------------------------------------------------


 2 CALLS TO NUMERICAL SOLUTION IN TIME STEP 1 STRESS PERIOD 361
 3 TOTAL ITERATIONS

 SLN_1 INNER ITERATION SUMMARY
 --------------------------------------------------------------------------------------------------------------------------------------
      TOTAL      OUTER      INNER                                                            MAXIMUM                                   
  ITERATION  ITERATION  ITERATION  MAXIMUM CHANGE      MAXIMUM CHANGE MODEL-(CELLID)        RESIDUAL    MAXIMUM RESIDUAL MODEL-(CELLID)
 --------------------------------------------------------------------------------------------------------------------------------------
          1          1          1 -3.53241985E-03                   1_GWF-(1,46,278)  8.52673903E-03                   1_GWF-(1,39,273)
          2          1          2 -6.49817683E-05                   1_GWF-(1,39,273)  2.11894060E-04                   1_GWF-(1,39,273)
          3          2          1 -1.92649654E-06                   1_GWF-(1,37,270)  1.14374345E-05                   1_GWF-(1,38,268)
 --------------------------------------------------------------------------------------------------------------------------------------


 
    Solving:  Stress period:   362    Time step:     1
 
1
 STRESS PERIOD NO. 362, LENGTH =   1.000000    
 ------------------------------------------
 NUMBER OF TIME STEPS = 1
 MULTIPLIER FOR DELT =     1.000
 INITIAL TIME STEP SIZE =   1.000000    

 SLN_1 OUTER ITERATION SUMMARY
 ----------------------------------------------------------------------------------------------------------
                                OUTER      INNER                    STEP   MAXIMUM CHANGE MODEL-(CELLID) OR
 OUTER ITERATION STEP       ITERATION  ITERATION  MAXIMUM CHANGE SUCCESS             MODEL-PACKAGE-(NUMBER)
 ----------------------------------------------------------------------------------------------------------
 Model                              1          2 -2.54383772E-03                           1_GWF-(1,38,272)
 Model                              2          1 -8.86187657E-07       *                   1_GWF-(1,45,277)
 ----------------------------------------------------------------------------------------------------------


 2 CALLS TO NUMERICAL SOLUTION IN TIME STEP 1 STRESS PERIOD 362
 3 TOTAL ITERATIONS

 SLN_1 INNER ITERATION SUMMARY
 --------------------------------------------------------------------------------------------------------------------------------------
      TOTAL      OUTER      INNER                                                            MAXIMUM                                   
  ITERATION  ITERATION  ITERATION  MAXIMUM CHANGE      MAXIMUM CHANGE MODEL-(CELLID)        RESIDUAL    MAXIMUM RESIDUAL MODEL-(CELLID)
 --------------------------------------------------------------------------------------------------------------------------------------
          1          1          1 -2.51608590E-03                   1_GWF-(1,38,272)  3.67988851E-03                   1_GWF-(1,39,273)
          2          1          2 -2.95187990E-05                   1_GWF-(1,42,275)  1.02473040E-04                   1_GWF-(1,39,273)
          3          2          1 -8.86187657E-07                   1_GWF-(1,45,277)  7.27751343E-06                   1_GWF-(1,45,277)
 --------------------------------------------------------------------------------------------------------------------------------------


 
    Solving:  Stress period:   363    Time step:     1
 
1
 STRESS PERIOD NO. 363, LENGTH =   1.000000    
 ------------------------------------------
 NUMBER OF TIME STEPS = 1
 MULTIPLIER FOR DELT =     1.000
 INITIAL TIME STEP SIZE =   1.000000    

 SLN_1 OUTER ITERATION SUMMARY
 ----------------------------------------------------------------------------------------------------------
                                OUTER      INNER                    STEP   MAXIMUM CHANGE MODEL-(CELLID) OR
 OUTER ITERATION STEP       ITERATION  ITERATION  MAXIMUM CHANGE SUCCESS             MODEL-PACKAGE-(NUMBER)
 ----------------------------------------------------------------------------------------------------------
 Model                              1          2 -1.95720674E-03                           1_GWF-(1,38,272)
 Model                              2          1 -6.66802806E-07       *                   1_GWF-(1,45,275)
 ----------------------------------------------------------------------------------------------------------


 2 CALLS TO NUMERICAL SOLUTION IN TIME STEP 1 STRESS PERIOD 363
 3 TOTAL ITERATIONS

 SLN_1 INNER ITERATION SUMMARY
 --------------------------------------------------------------------------------------------------------------------------------------
      TOTAL      OUTER      INNER                                                            MAXIMUM                                   
  ITERATION  ITERATION  ITERATION  MAXIMUM CHANGE      MAXIMUM CHANGE MODEL-(CELLID)        RESIDUAL    MAXIMUM RESIDUAL MODEL-(CELLID)
 --------------------------------------------------------------------------------------------------------------------------------------
          1          1          1 -1.94261584E-03                   1_GWF-(1,38,272) -1.85815203E-03                   1_GWF-(1,44,280)
          2          1          2 -1.55487315E-05                   1_GWF-(1,43,270)  4.71363418E-05                   1_GWF-(1,42,270)
          3          2          1 -6.66802806E-07                   1_GWF-(1,45,275) -5.79312235E-06                   1_GWF-(1,46,275)
 --------------------------------------------------------------------------------------------------------------------------------------


 
    Solving:  Stress period:   364    Time step:     1
 
1
 STRESS PERIOD NO. 364, LENGTH =   1.000000    
 ------------------------------------------
 NUMBER OF TIME STEPS = 1
 MULTIPLIER FOR DELT =     1.000
 INITIAL TIME STEP SIZE =   1.000000    

 SLN_1 OUTER ITERATION SUMMARY
 ----------------------------------------------------------------------------------------------------------
                                OUTER      INNER                    STEP   MAXIMUM CHANGE MODEL-(CELLID) OR
 OUTER ITERATION STEP       ITERATION  ITERATION  MAXIMUM CHANGE SUCCESS             MODEL-PACKAGE-(NUMBER)
 ----------------------------------------------------------------------------------------------------------
 Model                              1          2 -1.59137238E-03                           1_GWF-(1,38,272)
 Model                              2          1 -4.19492750E-07       *                   1_GWF-(1,38,268)
 ----------------------------------------------------------------------------------------------------------


 2 CALLS TO NUMERICAL SOLUTION IN TIME STEP 1 STRESS PERIOD 364
 3 TOTAL ITERATIONS

 SLN_1 INNER ITERATION SUMMARY
 --------------------------------------------------------------------------------------------------------------------------------------
      TOTAL      OUTER      INNER                                                            MAXIMUM                                   
  ITERATION  ITERATION  ITERATION  MAXIMUM CHANGE      MAXIMUM CHANGE MODEL-(CELLID)        RESIDUAL    MAXIMUM RESIDUAL MODEL-(CELLID)
 --------------------------------------------------------------------------------------------------------------------------------------
          1          1          1 -1.58293671E-03                   1_GWF-(1,38,272) -1.76079738E-03                   1_GWF-(1,43,280)
          2          1          2 -1.04532655E-05                   1_GWF-(1,43,269) -3.20737564E-05                   1_GWF-(1,45,281)
          3          2          1 -4.19492750E-07                   1_GWF-(1,38,268)  3.38581173E-06                   1_GWF-(1,38,268)
 --------------------------------------------------------------------------------------------------------------------------------------


 
    Solving:  Stress period:   365    Time step:     1
 
1
 STRESS PERIOD NO. 365, LENGTH =   1.000000    
 ------------------------------------------
 NUMBER OF TIME STEPS = 1
 MULTIPLIER FOR DELT =     1.000
 INITIAL TIME STEP SIZE =   1.000000    

 SLN_1 OUTER ITERATION SUMMARY
 ----------------------------------------------------------------------------------------------------------
                                OUTER      INNER                    STEP   MAXIMUM CHANGE MODEL-(CELLID) OR
 OUTER ITERATION STEP       ITERATION  ITERATION  MAXIMUM CHANGE SUCCESS             MODEL-PACKAGE-(NUMBER)
 ----------------------------------------------------------------------------------------------------------
 Model                              1          2 -1.35890259E-03                           1_GWF-(1,39,273)
 Model                              2          1 -1.95236383E-07       *                   1_GWF-(1,45,267)
 ----------------------------------------------------------------------------------------------------------


 2 CALLS TO NUMERICAL SOLUTION IN TIME STEP 1 STRESS PERIOD 365
 3 TOTAL ITERATIONS

 SLN_1 INNER ITERATION SUMMARY
 --------------------------------------------------------------------------------------------------------------------------------------
      TOTAL      OUTER      INNER                                                            MAXIMUM                                   
  ITERATION  ITERATION  ITERATION  MAXIMUM CHANGE      MAXIMUM CHANGE MODEL-(CELLID)        RESIDUAL    MAXIMUM RESIDUAL MODEL-(CELLID)
 --------------------------------------------------------------------------------------------------------------------------------------
          1          1          1 -1.35444728E-03                   1_GWF-(1,39,273) -2.26326375E-03                   1_GWF-(1,39,278)
          2          1          2 -7.71246475E-06                   1_GWF-(1,44,269)  2.21113248E-05                   1_GWF-(1,40,277)
          3          2          1 -1.95236383E-07                   1_GWF-(1,45,267)  5.12372366E-07                   1_GWF-(1,42,274)
 --------------------------------------------------------------------------------------------------------------------------------------



 MEMORY MANAGER TOTAL STORAGE BY DATA TYPE, IN MEGABYTES
 -------------------------------
                    ALLOCATED   
 DATA TYPE           MEMORY     
 -------------------------------
 Character        1.47330000E-02
 Logical          4.80000000E-05
 Integer          15.327584     
 Real             37.891952     
 -------------------------------
 Total            53.234317     
 Virtual          0.0000000     
 -------------------------------


 
 Run end date and time (yyyy/mm/dd hh:mm:ss): 2026/07/16 10:14:40
 Elapsed run time:  8 Minutes, 14.109 Seconds
 Normal termination of simulation.
